<additional>
    <tlLogic id="A0" type="static" programID="0" offset="0">
    <phase duration="30" state="GrGr"/>   <!-- verde NS -->
    <phase duration="3" state="yryr"/>    <!-- amarelo NS -->
    <phase duration="2" state="rGrG"/>   <!-- vermelho para NS, verde EW -->
    <phase duration="3" state="ryry"/>    <!-- amarelo EW -->
</tlLogic>
    <tlLogic id="A1" type="static" programID="0" offset="0">
    <phase duration="30" state="GrGr"/>   <!-- verde NS -->
    <phase duration="3" state="yryr"/>    <!-- amarelo NS -->
    <phase duration="2" state="rGrG"/>   <!-- vermelho para NS, verde EW -->
    <phase duration="3" state="ryry"/>    <!-- amarelo EW -->
</tlLogic>
    <tlLogic id="A2" type="static" programID="0" offset="0">
    <phase duration="30" state="GrGr"/>   <!-- verde NS -->
    <phase duration="3" state="yryr"/>    <!-- amarelo NS -->
    <phase duration="2" state="rGrG"/>   <!-- vermelho para NS, verde EW -->
    <phase duration="3" state="ryry"/>    <!-- amarelo EW -->
</tlLogic>
    <tlLogic id="A3" type="static" programID="0" offset="0">
    <phase duration="30" state="GrGr"/>   <!-- verde NS -->
    <phase duration="3" state="yryr"/>    <!-- amarelo NS -->
    <phase duration="2" state="rGrG"/>   <!-- vermelho para NS, verde EW -->
    <phase duration="3" state="ryry"/>    <!-- amarelo EW -->
</tlLogic>
    <tlLogic id="A4" type="static" programID="0" offset="0">
    <phase duration="30" state="GrGr"/>   <!-- verde NS -->
    <phase duration="3" state="yryr"/>    <!-- amarelo NS -->
    <phase duration="2" state="rGrG"/>   <!-- vermelho para NS, verde EW -->
    <phase duration="3" state="ryry"/>    <!-- amarelo EW -->
</tlLogic>
    <tlLogic id="A5" type="static" programID="0" offset="0">
    <phase duration="30" state="GrGr"/>   <!-- verde NS -->
    <phase duration="3" state="yryr"/>    <!-- amarelo NS -->
    <phase duration="2" state="rGrG"/>   <!-- vermelho para NS, verde EW -->
    <phase duration="3" state="ryry"/>    <!-- amarelo EW -->
</tlLogic>
    <tlLogic id="A6" type="static" programID="0" offset="0">
    <phase duration="30" state="GrGr"/>   <!-- verde NS -->
    <phase duration="3" state="yryr"/>    <!-- amarelo NS -->
    <phase duration="2" state="rGrG"/>   <!-- vermelho para NS, verde EW -->
    <phase duration="3" state="ryry"/>    <!-- amarelo EW -->
</tlLogic>
    <tlLogic id="B0" type="static" programID="0" offset="0">
    <phase duration="30" state="GrGr"/>   <!-- verde NS -->
    <phase duration="3" state="yryr"/>    <!-- amarelo NS -->
    <phase duration="2" state="rGrG"/>   <!-- vermelho para NS, verde EW -->
    <phase duration="3" state="ryry"/>    <!-- amarelo EW -->
</tlLogic>
    <tlLogic id="B1" type="static" programID="0" offset="0">
    <phase duration="30" state="GrGr"/>   <!-- verde NS -->
    <phase duration="3" state="yryr"/>    <!-- amarelo NS -->
    <phase duration="2" state="rGrG"/>   <!-- vermelho para NS, verde EW -->
    <phase duration="3" state="ryry"/>    <!-- amarelo EW -->
</tlLogic>
    <tlLogic id="B2" type="static" programID="0" offset="0">
    <phase duration="30" state="GrGr"/>   <!-- verde NS -->
    <phase duration="3" state="yryr"/>    <!-- amarelo NS -->
    <phase duration="2" state="rGrG"/>   <!-- vermelho para NS, verde EW -->
    <phase duration="3" state="ryry"/>    <!-- amarelo EW -->
</tlLogic>
    <tlLogic id="B3" type="static" programID="0" offset="0">
    <phase duration="30" state="GrGr"/>   <!-- verde NS -->
    <phase duration="3" state="yryr"/>    <!-- amarelo NS -->
    <phase duration="2" state="rGrG"/>   <!-- vermelho para NS, verde EW -->
    <phase duration="3" state="ryry"/>    <!-- amarelo EW -->
</tlLogic>
    <tlLogic id="B4" type="static" programID="0" offset="0">
    <phase duration="30" state="GrGr"/>   <!-- verde NS -->
    <phase duration="3" state="yryr"/>    <!-- amarelo NS -->
    <phase duration="2" state="rGrG"/>   <!-- vermelho para NS, verde EW -->
    <phase duration="3" state="ryry"/>    <!-- amarelo EW -->
</tlLogic>
    <tlLogic id="B5" type="static" programID="0" offset="0">
    <phase duration="30" state="GrGr"/>   <!-- verde NS -->
    <phase duration="3" state="yryr"/>    <!-- amarelo NS -->
    <phase duration="2" state="rGrG"/>   <!-- vermelho para NS, verde EW -->
    <phase duration="3" state="ryry"/>    <!-- amarelo EW -->
</tlLogic>
    <tlLogic id="B6" type="static" programID="0" offset="0">
    <phase duration="30" state="GrGr"/>   <!-- verde NS -->
    <phase duration="3" state="yryr"/>    <!-- amarelo NS -->
    <phase duration="2" state="rGrG"/>   <!-- vermelho para NS, verde EW -->
    <phase duration="3" state="ryry"/>    <!-- amarelo EW -->
</tlLogic>
    <tlLogic id="C0" type="static" programID="0" offset="0">
    <phase duration="30" state="GrGr"/>   <!-- verde NS -->
    <phase duration="3" state="yryr"/>    <!-- amarelo NS -->
    <phase duration="2" state="rGrG"/>   <!-- vermelho para NS, verde EW -->
    <phase duration="3" state="ryry"/>    <!-- amarelo EW -->
</tlLogic>
    <tlLogic id="C1" type="static" programID="0" offset="0">
    <phase duration="30" state="GrGr"/>   <!-- verde NS -->
    <phase duration="3" state="yryr"/>    <!-- amarelo NS -->
    <phase duration="2" state="rGrG"/>   <!-- vermelho para NS, verde EW -->
    <phase duration="3" state="ryry"/>    <!-- amarelo EW -->
</tlLogic>
    <tlLogic id="C2" type="static" programID="0" offset="0">
    <phase duration="30" state="GrGr"/>   <!-- verde NS -->
    <phase duration="3" state="yryr"/>    <!-- amarelo NS -->
    <phase duration="2" state="rGrG"/>   <!-- vermelho para NS, verde EW -->
    <phase duration="3" state="ryry"/>    <!-- amarelo EW -->
</tlLogic>
    <tlLogic id="C3" type="static" programID="0" offset="0">
    <phase duration="30" state="GrGr"/>   <!-- verde NS -->
    <phase duration="3" state="yryr"/>    <!-- amarelo NS -->
    <phase duration="2" state="rGrG"/>   <!-- vermelho para NS, verde EW -->
    <phase duration="3" state="ryry"/>    <!-- amarelo EW -->
</tlLogic>
    <tlLogic id="C4" type="static" programID="0" offset="0">
    <phase duration="30" state="GrGr"/>   <!-- verde NS -->
    <phase duration="3" state="yryr"/>    <!-- amarelo NS -->
    <phase duration="2" state="rGrG"/>   <!-- vermelho para NS, verde EW -->
    <phase duration="3" state="ryry"/>    <!-- amarelo EW -->
</tlLogic>
    <tlLogic id="C5" type="static" programID="0" offset="0">
    <phase duration="30" state="GrGr"/>   <!-- verde NS -->
    <phase duration="3" state="yryr"/>    <!-- amarelo NS -->
    <phase duration="2" state="rGrG"/>   <!-- vermelho para NS, verde EW -->
    <phase duration="3" state="ryry"/>    <!-- amarelo EW -->
</tlLogic>
    <tlLogic id="C6" type="static" programID="0" offset="0">
    <phase duration="30" state="GrGr"/>   <!-- verde NS -->
    <phase duration="3" state="yryr"/>    <!-- amarelo NS -->
    <phase duration="2" state="rGrG"/>   <!-- vermelho para NS, verde EW -->
    <phase duration="3" state="ryry"/>    <!-- amarelo EW -->
</tlLogic>
    <tlLogic id="D0" type="static" programID="0" offset="0">
    <phase duration="30" state="GrGr"/>   <!-- verde NS -->
    <phase duration="3" state="yryr"/>    <!-- amarelo NS -->
    <phase duration="2" state="rGrG"/>   <!-- vermelho para NS, verde EW -->
    <phase duration="3" state="ryry"/>    <!-- amarelo EW -->
</tlLogic>
    <tlLogic id="D1" type="static" programID="0" offset="0">
    <phase duration="30" state="GrGr"/>   <!-- verde NS -->
    <phase duration="3" state="yryr"/>    <!-- amarelo NS -->
    <phase duration="2" state="rGrG"/>   <!-- vermelho para NS, verde EW -->
    <phase duration="3" state="ryry"/>    <!-- amarelo EW -->
</tlLogic>
    <tlLogic id="D2" type="static" programID="0" offset="0">
    <phase duration="30" state="GrGr"/>   <!-- verde NS -->
    <phase duration="3" state="yryr"/>    <!-- amarelo NS -->
    <phase duration="2" state="rGrG"/>   <!-- vermelho para NS, verde EW -->
    <phase duration="3" state="ryry"/>    <!-- amarelo EW -->
</tlLogic>
    <tlLogic id="D3" type="static" programID="0" offset="0">
    <phase duration="30" state="GrGr"/>   <!-- verde NS -->
    <phase duration="3" state="yryr"/>    <!-- amarelo NS -->
    <phase duration="2" state="rGrG"/>   <!-- vermelho para NS, verde EW -->
    <phase duration="3" state="ryry"/>    <!-- amarelo EW -->
</tlLogic>
    <tlLogic id="D4" type="static" programID="0" offset="0">
    <phase duration="30" state="GrGr"/>   <!-- verde NS -->
    <phase duration="3" state="yryr"/>    <!-- amarelo NS -->
    <phase duration="2" state="rGrG"/>   <!-- vermelho para NS, verde EW -->
    <phase duration="3" state="ryry"/>    <!-- amarelo EW -->
</tlLogic>
    <tlLogic id="D5" type="static" programID="0" offset="0">
    <phase duration="30" state="GrGr"/>   <!-- verde NS -->
    <phase duration="3" state="yryr"/>    <!-- amarelo NS -->
    <phase duration="2" state="rGrG"/>   <!-- vermelho para NS, verde EW -->
    <phase duration="3" state="ryry"/>    <!-- amarelo EW -->
</tlLogic>
    <tlLogic id="D6" type="static" programID="0" offset="0">
    <phase duration="30" state="GrGr"/>   <!-- verde NS -->
    <phase duration="3" state="yryr"/>    <!-- amarelo NS -->
    <phase duration="2" state="rGrG"/>   <!-- vermelho para NS, verde EW -->
    <phase duration="3" state="ryry"/>    <!-- amarelo EW -->
</tlLogic>
    <tlLogic id="E0" type="static" programID="0" offset="0">
    <phase duration="30" state="GrGr"/>   <!-- verde NS -->
    <phase duration="3" state="yryr"/>    <!-- amarelo NS -->
    <phase duration="2" state="rGrG"/>   <!-- vermelho para NS, verde EW -->
    <phase duration="3" state="ryry"/>    <!-- amarelo EW -->
</tlLogic>
    <tlLogic id="E1" type="static" programID="0" offset="0">
    <phase duration="30" state="GrGr"/>   <!-- verde NS -->
    <phase duration="3" state="yryr"/>    <!-- amarelo NS -->
    <phase duration="2" state="rGrG"/>   <!-- vermelho para NS, verde EW -->
    <phase duration="3" state="ryry"/>    <!-- amarelo EW -->
</tlLogic>
    <tlLogic id="E2" type="static" programID="0" offset="0">
    <phase duration="30" state="GrGr"/>   <!-- verde NS -->
    <phase duration="3" state="yryr"/>    <!-- amarelo NS -->
    <phase duration="2" state="rGrG"/>   <!-- vermelho para NS, verde EW -->
    <phase duration="3" state="ryry"/>    <!-- amarelo EW -->
</tlLogic>
    <tlLogic id="E3" type="static" programID="0" offset="0">
    <phase duration="30" state="GrGr"/>   <!-- verde NS -->
    <phase duration="3" state="yryr"/>    <!-- amarelo NS -->
    <phase duration="2" state="rGrG"/>   <!-- vermelho para NS, verde EW -->
    <phase duration="3" state="ryry"/>    <!-- amarelo EW -->
</tlLogic>
    <tlLogic id="E4" type="static" programID="0" offset="0">
    <phase duration="30" state="GrGr"/>   <!-- verde NS -->
    <phase duration="3" state="yryr"/>    <!-- amarelo NS -->
    <phase duration="2" state="rGrG"/>   <!-- vermelho para NS, verde EW -->
    <phase duration="3" state="ryry"/>    <!-- amarelo EW -->
</tlLogic>
    <tlLogic id="E5" type="static" programID="0" offset="0">
    <phase duration="30" state="GrGr"/>   <!-- verde NS -->
    <phase duration="3" state="yryr"/>    <!-- amarelo NS -->
    <phase duration="2" state="rGrG"/>   <!-- vermelho para NS, verde EW -->
    <phase duration="3" state="ryry"/>    <!-- amarelo EW -->
</tlLogic>
    <tlLogic id="E6" type="static" programID="0" offset="0">
    <phase duration="30" state="GrGr"/>   <!-- verde NS -->
    <phase duration="3" state="yryr"/>    <!-- amarelo NS -->
    <phase duration="2" state="rGrG"/>   <!-- vermelho para NS, verde EW -->
    <phase duration="3" state="ryry"/>    <!-- amarelo EW -->
</tlLogic>
    <tlLogic id="F0" type="static" programID="0" offset="0">
    <phase duration="30" state="GrGr"/>   <!-- verde NS -->
    <phase duration="3" state="yryr"/>    <!-- amarelo NS -->
    <phase duration="2" state="rGrG"/>   <!-- vermelho para NS, verde EW -->
    <phase duration="3" state="ryry"/>    <!-- amarelo EW -->
</tlLogic>
    <tlLogic id="F1" type="static" programID="0" offset="0">
    <phase duration="30" state="GrGr"/>   <!-- verde NS -->
    <phase duration="3" state="yryr"/>    <!-- amarelo NS -->
    <phase duration="2" state="rGrG"/>   <!-- vermelho para NS, verde EW -->
    <phase duration="3" state="ryry"/>    <!-- amarelo EW -->
</tlLogic>
    <tlLogic id="F2" type="static" programID="0" offset="0">
    <phase duration="30" state="GrGr"/>   <!-- verde NS -->
    <phase duration="3" state="yryr"/>    <!-- amarelo NS -->
    <phase duration="2" state="rGrG"/>   <!-- vermelho para NS, verde EW -->
    <phase duration="3" state="ryry"/>    <!-- amarelo EW -->
</tlLogic>
    <tlLogic id="F3" type="static" programID="0" offset="0">
    <phase duration="30" state="GrGr"/>   <!-- verde NS -->
    <phase duration="3" state="yryr"/>    <!-- amarelo NS -->
    <phase duration="2" state="rGrG"/>   <!-- vermelho para NS, verde EW -->
    <phase duration="3" state="ryry"/>    <!-- amarelo EW -->
</tlLogic>
    <tlLogic id="F4" type="static" programID="0" offset="0">
    <phase duration="30" state="GrGr"/>   <!-- verde NS -->
    <phase duration="3" state="yryr"/>    <!-- amarelo NS -->
    <phase duration="2" state="rGrG"/>   <!-- vermelho para NS, verde EW -->
    <phase duration="3" state="ryry"/>    <!-- amarelo EW -->
</tlLogic>
    <tlLogic id="F5" type="static" programID="0" offset="0">
    <phase duration="30" state="GrGr"/>   <!-- verde NS -->
    <phase duration="3" state="yryr"/>    <!-- amarelo NS -->
    <phase duration="2" state="rGrG"/>   <!-- vermelho para NS, verde EW -->
    <phase duration="3" state="ryry"/>    <!-- amarelo EW -->
</tlLogic>
    <tlLogic id="F6" type="static" programID="0" offset="0">
    <phase duration="30" state="GrGr"/>   <!-- verde NS -->
    <phase duration="3" state="yryr"/>    <!-- amarelo NS -->
    <phase duration="2" state="rGrG"/>   <!-- vermelho para NS, verde EW -->
    <phase duration="3" state="ryry"/>    <!-- amarelo EW -->
</tlLogic>
    <tlLogic id="G0" type="static" programID="0" offset="0">
    <phase duration="30" state="GrGr"/>   <!-- verde NS -->
    <phase duration="3" state="yryr"/>    <!-- amarelo NS -->
    <phase duration="2" state="rGrG"/>   <!-- vermelho para NS, verde EW -->
    <phase duration="3" state="ryry"/>    <!-- amarelo EW -->
</tlLogic>
    <tlLogic id="G1" type="static" programID="0" offset="0">
    <phase duration="30" state="GrGr"/>   <!-- verde NS -->
    <phase duration="3" state="yryr"/>    <!-- amarelo NS -->
    <phase duration="2" state="rGrG"/>   <!-- vermelho para NS, verde EW -->
    <phase duration="3" state="ryry"/>    <!-- amarelo EW -->
</tlLogic>
    <tlLogic id="G2" type="static" programID="0" offset="0">
    <phase duration="30" state="GrGr"/>   <!-- verde NS -->
    <phase duration="3" state="yryr"/>    <!-- amarelo NS -->
    <phase duration="2" state="rGrG"/>   <!-- vermelho para NS, verde EW -->
    <phase duration="3" state="ryry"/>    <!-- amarelo EW -->
</tlLogic>
    <tlLogic id="G3" type="static" programID="0" offset="0">
    <phase duration="30" state="GrGr"/>   <!-- verde NS -->
    <phase duration="3" state="yryr"/>    <!-- amarelo NS -->
    <phase duration="2" state="rGrG"/>   <!-- vermelho para NS, verde EW -->
    <phase duration="3" state="ryry"/>    <!-- amarelo EW -->
</tlLogic>
    <tlLogic id="G4" type="static" programID="0" offset="0">
    <phase duration="30" state="GrGr"/>   <!-- verde NS -->
    <phase duration="3" state="yryr"/>    <!-- amarelo NS -->
    <phase duration="2" state="rGrG"/>   <!-- vermelho para NS, verde EW -->
    <phase duration="3" state="ryry"/>    <!-- amarelo EW -->
</tlLogic>
    <tlLogic id="G5" type="static" programID="0" offset="0">
    <phase duration="30" state="GrGr"/>   <!-- verde NS -->
    <phase duration="3" state="yryr"/>    <!-- amarelo NS -->
    <phase duration="2" state="rGrG"/>   <!-- vermelho para NS, verde EW -->
    <phase duration="3" state="ryry"/>    <!-- amarelo EW -->
</tlLogic>
    <tlLogic id="G6" type="static" programID="0" offset="0">
    <phase duration="30" state="GrGr"/>   <!-- verde NS -->
    <phase duration="3" state="yryr"/>    <!-- amarelo NS -->
    <phase duration="2" state="rGrG"/>   <!-- vermelho para NS, verde EW -->
    <phase duration="3" state="ryry"/>    <!-- amarelo EW -->
</tlLogic>
</additional>
